/*--------------------------------*- C++ -*----------------------------------*\
| =========                 |                                                 |
| \\      /  F ield         | OpenFOAM: The Open Source CFD Toolbox           |
|  \\    /   O peration     | Version:  v2312                                 |
|   \\  /    A nd           | Website:  www.openfoam.com                      |
|    \\/     M anipulation  |                                                 |
\*---------------------------------------------------------------------------*/
FoamFile
{
    version     2.0;
    format      ascii;
    class       dictionary;
    location    "system";
    object      fvSolution;
}
// * * * * * * * * * * * * * * * * * * * * * * * * * * * * * * * * * * * * * //

solvers
{
    "alpha.water.*"
    {
        nAlphaCorr      1;
        nAlphaSubCycles 3;
        cAlpha          1;
    }

    "pcorr.*"
    {
        solver			GAMG;
        smoother        DIC;
        tolerance		1e-5;
        relTol			0.01;
    }

    p_rgh
    {
        solver          GAMG;
        smoother        DIC;
        tolerance       1e-06;
        relTol          0.01;
    }

    p_rghFinal
    {
		$p_rgh;
        relTol          0;
    }

    U
    {
        solver          smoothSolver;
        smoother        GaussSeidel;
        tolerance       1e-06;
        relTol          0.1;
    }

    UFinal
    {
        $U;
        relTol          0;
    }
}

PIMPLE
{
	nOuterCorrectors			1;
    nCorrectors					2;
    nNonOrthogonalCorrectors	0;
    momentumPredictor			no;
    correctPhi      			no;

    pRefCell       				0;
    pRefValue       			1e5;
}

relaxationFactors
{
}

// ************************************************************************* //
